#	Created by:	Discovery Studio
#	Creation time:	2025-01-09T13:51:01Z

@<SCITEGIC>ROOT_PROPERTY
Ligand:MaximumNumberOfAtoms
SciTegic.value.IntegerValue
100

@<SCITEGIC>ROOT_PROPERTY
Ligand:HydrogenAtomsCountTowardsMaximum
SciTegic.value.BooleanValue
FALSE

@<TRIPOS>MOLECULE
complex_A_R1K.A_F3P.A_R4P_1
  108   109     6 0 0
PROTEIN
USER_CHARGES


@<TRIPOS>ATOM
      1 N            18.521504  121.968702  213.802200 N.4      1 LYS1      -0.3000
      2 HT1          18.542262  121.648089  212.813288 H        1 LYS1       0.3500
      3 HT2          19.193460  121.402487  214.355731 H        1 LYS1       0.3500
      4 HT3          18.798809  122.969894  213.846495 H        1 LYS1       0.3500
      5 CA           17.185996  121.807274  214.342975 C.3      1 LYS1       0.1500
      6 HA           16.965325  120.739253  214.352745 H        1 LYS1       0.0500
      7 CB           17.015171  122.442423  215.741971 C.3      1 LYS1      -0.1000
      8 HB1          16.974419  123.531531  215.672677 H        1 LYS1       0.0500
      9 HB2          17.885853  122.237324  216.353639 H        1 LYS1       0.0500
     10 CG           15.807791  121.917662  216.528050 C.3      1 LYS1      -0.1000
     11 HG1          14.885379  122.128000  215.988230 H        1 LYS1       0.0500
     12 HG2          15.885457  120.833216  216.605251 H        1 LYS1       0.0500
     13 CD           15.748004  122.522162  217.939476 C.3      1 LYS1      -0.1000
     14 HD1          16.737769  122.477063  218.396276 H        1 LYS1       0.0500
     15 HD2          15.493924  123.580078  217.870691 H        1 LYS1       0.0500
     16 CE           14.757140  121.803986  218.862104 C.3      1 LYS1       0.0500
     17 HE1          13.764590  121.762333  218.416964 H        1 LYS1       0.1000
     18 HE2          15.073641  120.776114  219.039192 H        1 LYS1       0.1000
     19 NZ           14.640601  122.461450  220.160375 N.4      1 LYS1      -0.3000
     20 HZ1          13.944461  121.962448  220.750847 H        1 LYS1       0.3500
     21 HZ2          15.567396  122.456173  220.633443 H        1 LYS1       0.3500
     22 HZ3          14.335909  123.446289  220.024211 H        1 LYS1       0.3500
     23 C            16.286574  122.530217  213.374127 C.2      1 LYS1       0.6000
     24 O            16.652547  123.563978  212.829491 O.2      1 LYS1      -0.5500
     25 N            15.116483  121.917946  213.166285 N.am     2 GLY2      -0.4000
     26 HN           14.852525  121.094350  213.667047 H        2 GLY2       0.2500
     27 CA           14.287159  122.449379  212.110941 C.3      2 GLY2       0.0000
     28 HA1          14.586192  121.874526  211.241236 H        2 GLY2       0.0500
     29 HA2          14.545169  123.476688  211.881924 H        2 GLY2       0.0500
     30 C            12.832512  122.124850  212.358160 C.2      2 GLY2       0.6000
     31 O            12.484679  121.197920  213.080441 O.2      2 GLY2      -0.5500
     32 N            12.019734  122.993762  211.723094 N.am     3 PRO3      -0.2500
     33 CD           12.425069  124.453566  211.807433 C.3      3 PRO3       0.0000
     34 HD1          12.918894  124.850709  210.922567 H        3 PRO3       0.0500
     35 HD2          13.117329  124.618274  212.635143 H        3 PRO3       0.0500
     36 CA           10.589030  122.986652  211.980674 C.3      3 PRO3       0.0500
     37 HA           10.268477  122.042120  212.396256 H        3 PRO3       0.0500
     38 CB           10.322305  124.192776  212.886018 C.3      3 PRO3      -0.1000
     39 HB1          10.653178  123.961419  213.889498 H        3 PRO3       0.0500
     40 HB2           9.276554  124.491836  212.974351 H        3 PRO3       0.0500
     41 CG           11.210078  125.264707  212.261982 C.3      3 PRO3      -0.1000
     42 HG1          10.720446  125.727487  211.404342 H        3 PRO3       0.0500
     43 HG2          11.465527  126.059646  212.963943 H        3 PRO3       0.0500
     44 C             9.773644  123.267866  210.714371 C.2      3 PRO3       0.6000
     45 O             8.856784  124.073466  210.667771 O.2      3 PRO3      -0.5500
     46 N            10.195742  122.538812  209.687732 N.am     4 PRO4      -0.2500
     47 CD           11.605675  122.854077  209.180068 C.3      4 PRO4       0.0000
     48 HD1          12.312702  122.036250  209.322649 H        4 PRO4       0.0500
     49 HD2          11.988221  123.762829  209.597980 H        4 PRO4       0.0500
     50 CA            9.543807  122.576984  208.392141 C.3      4 PRO4       0.0500
     51 HA            8.461819  122.661630  208.495678 H        4 PRO4       0.0500
     52 CB           10.115603  123.684632  207.546667 C.3      4 PRO4      -0.1000
     53 HB1           9.831743  124.626261  208.012725 H        4 PRO4       0.0500
     54 HB2           9.783492  123.680822  206.507654 H        4 PRO4       0.0500
     55 CG           11.579008  123.405786  207.732491 C.3      4 PRO4      -0.1000
     56 HG1          12.174148  124.306415  207.574029 H        4 PRO4       0.0500
     57 HG2          11.914520  122.667185  207.007283 H        4 PRO4       0.0500
     58 C             9.881032  121.230192  207.798939 C.2      4 PRO4       0.6000
     59 O            10.691832  120.506043  208.363557 O.2      4 PRO4      -0.5500
     60 N             9.206487  120.895486  206.678230 N.am     5 ARG5      -0.4000
     61 HN            8.601965  121.553864  206.231655 H        5 ARG5       0.2500
     62 CA            9.276581  119.520883  206.214224 C.3      5 ARG5       0.0500
     63 HA            8.905999  118.915507  207.044232 H        5 ARG5       0.0500
     64 CB            8.389736  119.254058  204.983694 C.3      5 ARG5      -0.1000
     65 HB1           7.374946  119.583795  205.187436 H        5 ARG5       0.0500
     66 HB2           8.314258  118.172929  204.862229 H        5 ARG5       0.0500
     67 CG            8.871337  119.848733  203.647979 C.3      5 ARG5      -0.1000
     68 HG1           8.515320  119.209882  202.838725 H        5 ARG5       0.0500
     69 HG2           9.957965  119.824398  203.572617 H        5 ARG5       0.0500
     70 CD            8.358229  121.266792  203.386906 C.3      5 ARG5       0.0000
     71 HD1           8.791077  121.648773  202.462380 H        5 ARG5       0.0500
     72 HD2           8.619791  121.950169  204.194033 H        5 ARG5       0.0500
     73 NE            6.898726  121.248284  203.295156 N.pl3    5 ARG5      -0.4000
     74 HE            6.397382  120.746618  204.001507 H        5 ARG5       0.3000
     75 CZ            6.183071  121.833372  202.308919 C.cat    5 ARG5       0.5000
     76 NH1           6.769698  122.501776  201.319031 N.pl3    5 ARG5      -0.4500
     77 HH11          7.765756  122.578060  201.295920 H        5 ARG5       0.3500
     78 HH12          6.219865  122.922150  200.597844 H        5 ARG5       0.3500
     79 NH2           4.858619  121.734716  202.329187 N.pl3    5 ARG5      -0.4500
     80 HH21          4.402778  121.222323  203.059428 H        5 ARG5       0.3500
     81 HH22          4.308961  122.172498  201.616541 H        5 ARG5       0.3500
     82 C            10.732874  119.126876  205.956467 C.2      5 ARG5       0.6000
     83 O            11.637427  119.952607  205.938231 O.2      5 ARG5      -0.5500
     84 N            10.881914  117.809137  205.808221 N.am     6 ARG6      -0.4000
     85 HN           10.059309  117.241597  205.827150 H        6 ARG6       0.2500
     86 CA           12.172073  117.154514  205.654560 C.3      6 ARG6       0.1000
     87 HA           12.632375  117.202067  206.642768 H        6 ARG6       0.0500
     88 CB           11.906365  115.700297  205.289426 C.3      6 ARG6      -0.1000
     89 HB1          11.166595  115.339624  205.996817 H        6 ARG6       0.0500
     90 HB2          12.822013  115.147687  205.477643 H        6 ARG6       0.0500
     91 CG           11.400807  115.427064  203.858503 C.3      6 ARG6      -0.1000
     92 HG1          11.259937  114.351581  203.749995 H        6 ARG6       0.0500
     93 HG2          12.164460  115.701245  203.132059 H        6 ARG6       0.0500
     94 CD           10.083701  116.145006  203.521473 C.3      6 ARG6       0.0000
     95 HD1          10.248363  117.210606  203.363800 H        6 ARG6       0.0500
     96 HD2           9.340222  116.037991  204.313261 H        6 ARG6       0.0500
     97 NE            9.502203  115.656686  202.277267 N.pl3    6 ARG6      -0.4000
     98 HE            9.650119  116.192708  201.446171 H        6 ARG6       0.3000
     99 CZ            8.731880  114.546219  202.222109 C.cat    6 ARG6       0.5000
    100 NH1           8.531975  113.791465  203.301038 N.pl3    6 ARG6      -0.4500
    101 HH11          7.955252  112.976546  203.248562 H        6 ARG6       0.3500
    102 HH12          8.962470  114.043898  204.168250 H        6 ARG6       0.3500
    103 NH2           8.161037  114.206791  201.070643 N.pl3    6 ARG6      -0.4500
    104 HH21          7.586524  113.390356  201.016135 H        6 ARG6       0.3500
    105 HH22          8.303162  114.770755  200.257090 H        6 ARG6       0.3500
    106 C            13.110777  117.835196  204.648342 C.2      6 ARG6       0.1400
    107 OCT1         14.308496  117.552513  204.679910 O.co2    6 ARG6      -0.5700
    108 OCT2         12.632109  118.641095  203.852552 O.co2    6 ARG6      -0.5700
@<TRIPOS>BOND
     1    1    2 1
     2    1    3 1
     3    1    4 1
     4    1    5 1
     5    5    7 1
     6    5   23 1
     7    6    5 1
     8    7   10 1
     9    8    7 1
    10    9    7 1
    11   10   13 1
    12   11   10 1
    13   12   10 1
    14   13   16 1
    15   14   13 1
    16   15   13 1
    17   16   19 1
    18   17   16 1
    19   18   16 1
    20   20   19 1
    21   21   19 1
    22   22   19 1
    23   23   24 2
    24   25   26 1
    25   25   27 1
    26   27   28 1
    27   27   29 1
    28   27   30 1
    29   30   31 2
    30   32   36 1
    31   33   32 1
    32   34   33 1
    33   35   33 1
    34   36   38 1
    35   36   44 1
    36   37   36 1
    37   38   41 1
    38   39   38 1
    39   40   38 1
    40   41   33 1
    41   42   41 1
    42   43   41 1
    43   44   45 2
    44   46   50 1
    45   47   46 1
    46   48   47 1
    47   49   47 1
    48   50   52 1
    49   50   58 1
    50   51   50 1
    51   52   55 1
    52   53   52 1
    53   54   52 1
    54   55   47 1
    55   56   55 1
    56   57   55 1
    57   58   59 2
    58   60   61 1
    59   60   62 1
    60   62   63 1
    61   62   64 1
    62   62   82 1
    63   64   65 1
    64   64   66 1
    65   64   67 1
    66   67   68 1
    67   67   69 1
    68   67   70 1
    69   70   71 1
    70   70   72 1
    71   70   73 1
    72   73   74 1
    73   73   75 1
    74   75   76 2
    75   75   79 1
    76   76   77 1
    77   76   78 1
    78   79   80 1
    79   79   81 1
    80   82   83 2
    81   84   85 1
    82   84   86 1
    83   86   87 1
    84   86   88 1
    85   86  106 1
    86   88   89 1
    87   88   90 1
    88   88   91 1
    89   91   92 1
    90   91   93 1
    91   91   94 1
    92   94   95 1
    93   94   96 1
    94   94   97 1
    95   97   98 1
    96   97   99 1
    97   99  100 2
    98   99  103 1
    99  100  101 1
   100  100  102 1
   101  103  104 1
   102  103  105 1
   103  106  107 2
   104  106  108 1
   105   23   25 1
   106   30   32 1
   107   44   46 1
   108   58   60 1
   109   82   84 1
@<TRIPOS>SUBSTRUCTURE
1 LYS1 1 RESIDUE 1 a LYS
2 GLY2 25 RESIDUE 1 a GLY
3 PRO3 32 RESIDUE 1 a PRO
4 PRO4 46 RESIDUE 1 a PRO
5 ARG5 60 RESIDUE 1 a ARG
6 ARG6 84 RESIDUE 1 a ARG
@<TRIPOS>CRYSIN
59.502000 100.311000 165.615000 90.000000 90.000000 90.000000 19 1
@<SCITEGIC>MOL_PROPERTY
AssignOBJECTID
SciTegic.value.StringValue
1

@<SCITEGIC>MOL_PROPERTY
__PDBRemarks__
SciTegic.value.StringValue
CRYST1   59.502  100.311  165.615  90.00  90.00  90.00 P 21 21 21    1

@<SCITEGIC>MOL_PROPERTY
REMARK99
SciTegic.value.StringValue
REMARK  99  MacroMolecule created from Mol2 file
REMARK  99  complex
REMARK  99  PROTEIN
REMARK  99  USER_CHARGES
REMARK  99
REMARK  99

@<SCITEGIC>MOL_PROPERTY
Forcefield
SciTegic.value.StringValue
CHARMm

@<SCITEGIC>MOL_PROPERTY
PartialChargeMethod
SciTegic.value.StringValue
MomanyRone

@<SCITEGIC>MOL_PROPERTY
UseResidueTemplateCharge
SciTegic.value.StringValue
True

@<SCITEGIC>MOL_PROPERTY
ForcefieldBase
SciTegic.value.StringValue
CHARMm

@<SCITEGIC>MOL_PROPERTY
ForcefieldFFML
SciTegic.value.StringValue
<?xml version="1.0" encoding="UTF-8"?>
<!DOCTYPE ffml SYSTEM "Ffml.dtd">
<ffml version="1.0">
<forcefield name="CHARMm" derivedFrom="CHARMm" base="CHARMm">
<atomTypes>
</atomTypes>
<parameters>
<bond atom1="PO3" atom2="ST">
<quadratic
refValue="2.09"
forceConstant="200"/>
</bond>
<angle atom1="PO3" atom2="ST" atom3="H">
<quadratic
refValue="103.68"
forceConstant="51.6667"/>
</angle>
<angle atom1="ST" atom2="PO3" atom3="OC">
<quadratic
refValue="109.47"
forceConstant="55"/>
</angle>
<angle atom1="ST" atom2="PO3" atom3="OS">
<quadratic
refValue="107.18"
forceConstant="60"/>
</angle>
<torsion atom1="OC" atom2="PO3" atom3="ST" atom4="H">
<multiplecos
v1="0"
v2="0"
v3="0.33"
v4="0"
v5="0"
v6="0"
gamma1="0"
gamma2="0"
gamma3="0"
gamma4="0"
gamma5="0"
gamma6="0"/>
</torsion>
<torsion atom1="OS" atom2="PO3" atom3="ST" atom4="H">
<multiplecos
v1="0"
v2="0"
v3="0.33"
v4="0"
v5="0"
v6="0"
gamma1="0"
gamma2="0"
gamma3="0"
gamma4="0"
gamma5="0"
gamma6="0"/>
</torsion>
</parameters>
</forcefield>
</ffml>

@<SCITEGIC>MOL_PROPERTY
InternalFF
SciTegic.value.StringValue
CHARMm

@<SCITEGIC>MOL_PROPERTY
Most Optimal Mutation
SciTegic.value.StringValue
A:ARG1>PRO

@<SCITEGIC>MOL_PROPERTY
Energy of Most Optimal Mutation
SciTegic.value.DoubleValue
-3.750000

@<SCITEGIC>MOL_PROPERTY
Effect of Most Optimal Mutation
SciTegic.value.StringValue
STABILIZING

@<SCITEGIC>MOL_PROPERTY
Least Optimal Mutation
SciTegic.value.StringValue
A:ARG1>GLU

@<SCITEGIC>MOL_PROPERTY
Energy of Least Optimal Mutation
SciTegic.value.IntegerValue
5

@<SCITEGIC>MOL_PROPERTY
Effect of Least Optimal Mutation
SciTegic.value.StringValue
DESTABILIZING

@<SCITEGIC>MOL_PROPERTY
Initial RMS Gradient
SciTegic.value.DoubleValue
6.803540

@<SCITEGIC>MOL_PROPERTY
CHARMm Energy
SciTegic.value.DoubleValue
-6605.390137

@<SCITEGIC>MOL_PROPERTY
OBJECTID
SciTegic.value.StringValue
9223372036858118146

@<SCITEGIC>MOL_PROPERTY
Bond Energy
SciTegic.value.DoubleValue
196.408005

@<SCITEGIC>MOL_PROPERTY
Angle Energy
SciTegic.value.DoubleValue
1585.069946

@<SCITEGIC>MOL_PROPERTY
Urey-Bradley Energy
SciTegic.value.IntegerValue
0

@<SCITEGIC>MOL_PROPERTY
Dihedral Energy
SciTegic.value.DoubleValue
2272.949951

@<SCITEGIC>MOL_PROPERTY
Improper Energy
SciTegic.value.DoubleValue
84.161400

@<SCITEGIC>MOL_PROPERTY
Hydrogen Bond Energy
SciTegic.value.IntegerValue
0

@<SCITEGIC>MOL_PROPERTY
Solvation Free Energy
SciTegic.value.IntegerValue
0

@<SCITEGIC>MOL_PROPERTY
PBnp
SciTegic.value.IntegerValue
0

@<SCITEGIC>MOL_PROPERTY
PBelec
SciTegic.value.IntegerValue
0

@<SCITEGIC>MOL_PROPERTY
GBEnr
SciTegic.value.DoubleValue
-3332.199951

@<SCITEGIC>MOL_PROPERTY
GSBP
SciTegic.value.IntegerValue
0

@<SCITEGIC>MOL_PROPERTY
SMBP
SciTegic.value.IntegerValue
0

@<SCITEGIC>MOL_PROPERTY
MUTATION
SciTegic.value.StringValue
820LYS.822PRO.823PRO

@<SCITEGIC>MOL_PROPERTY
VDW Term
SciTegic.value.DoubleValue
11.030000

@<SCITEGIC>MOL_PROPERTY
Entropy Term
SciTegic.value.DoubleValue
-2.270000

@<SCITEGIC>MOL_PROPERTY
Nonpolar Term
SciTegic.value.IntegerValue
0

@<SCITEGIC>MOL_PROPERTY
ONELETT
SciTegic.value.StringValue
A_R1K.A_F3P.A_R4P

@<SCITEGIC>MOL_PROPERTY
NMUT
SciTegic.value.IntegerValue
3

@<SCITEGIC>MOL_PROPERTY
MolName
SciTegic.value.StringValue
820LYS.822PRO.823PRO

@<SCITEGIC>MOL_PROPERTY
FULL_NAME
SciTegic.value.StringValue
A:ARG1>LYS.A:PHE3>PRO.A:ARG4>PRO

@<SCITEGIC>MOL_PROPERTY
IIRES
SciTegic.value.StringValue
820
822
823

@<SCITEGIC>MOL_PROPERTY
MIndex
SciTegic.value.IntegerValue
40

@<SCITEGIC>MOL_PROPERTY
pI
SciTegic.value.DoubleValue
6.040000

@<SCITEGIC>MOL_PROPERTY
Net Charge
SciTegic.value.DoubleValue
-14.350000

@<SCITEGIC>MOL_PROPERTY
At pH
SciTegic.value.DoubleValue
7.400000

@<SCITEGIC>MOL_PROPERTY
MutID
SciTegic.value.StringValue
820LYS.822PRO.823PRO

@<SCITEGIC>MOL_PROPERTY
Electrostatic Term
SciTegic.value.DoubleValue
-10.410000

@<SCITEGIC>MOL_PROPERTY
Effect of Mutation
SciTegic.value.StringValue
STABILIZING

@<SCITEGIC>MOL_PROPERTY
FILE_FULL_NAME
SciTegic.value.StringValue
A_ARG1LYS.A_PHE3PRO.A_ARG4PRO

@<SCITEGIC>MOL_PROPERTY
Mutation Energy
SciTegic.value.DoubleValue
-6.711000

@<SCITEGIC>MOL_PROPERTY
MutEffect
SciTegic.value.StringValue
STABILIZING

@<SCITEGIC>MOL_PROPERTY
Rank
SciTegic.value.IntegerValue
1

@<SCITEGIC>MOL_PROPERTY
TOPKAT_Ames_Prediction
SciTegic.value.StringValue
Non-Mutagen

@<SCITEGIC>MOL_PROPERTY
TOPKAT_Ames_Applicability
SciTegic.value.StringValue
All properties and OPS components are within expected ranges.
Unknown SCFP_2 feature: 2127641827: [*]C([*])[NH3+]

@<SCITEGIC>MOL_PROPERTY
TOPKAT_Ames_Probability
SciTegic.value.DoubleValue
0.002576

@<SCITEGIC>MOL_PROPERTY
TOPKAT_Ames_Enrichment
SciTegic.value.DoubleValue
0.004613

@<SCITEGIC>MOL_PROPERTY
TOPKAT_Ames_Score
SciTegic.value.DoubleValue
-28.698463

@<SCITEGIC>CHAIN_PROPERTY
OBJECTID
SciTegic.value.StringValue
1 12885884930

@<SCITEGIC>RESIDUE_PROPERTY
OBJECTID
SciTegic.value.StringValue
1 1 3513284100098
1 2 3517579067394
1 3 3521874034690
1 4 3526169001986
1 5 3530463969282
1 6 3534758936578

@<SCITEGIC>RESIDUE_PROPERTY
Non-Standard
SciTegic.value.StringValue
1 1 No
1 2 No
1 3 No
1 4 No
1 5 No
1 6 No

@<SCITEGIC>RESIDUE_PROPERTY
ForceFieldTemplate
SciTegic.value.StringValue
1 1 LYS
1 2 GLY
1 3 PRO
1 4 PRO
1 5 ARG
1 6 ARG

@<SCITEGIC>RESIDUE_PROPERTY
Predicted N-term pK
SciTegic.value.DoubleValue
1 1 9.931000

@<SCITEGIC>RESIDUE_PROPERTY
Partial Protonation
SciTegic.value.StringValue
1 1 1.000 1.000 1.000 1.000 1.000 1.000 1.000 1.000 1.000 1.000 1.000 1.000 1.000 1.000 1.000 1.000 1.000 1.000 1.000 1.000 1.000 1.000 1.000 1.000 1.000 1.000 1.000 1.000 1.000 1.000 1.000 1.000 1.000 1.000 1.000 1.000 1.000 1.000 1.000 1.000 1.000 1.000 1.000 1.000 1.000 1.000 1.000 1.000 1.000 1.000 1.000 1.000 1.000 1.000 1.000 1.000 1.000 1.000 1.000 1.000 1.000 1.000 1.000 1.000 1.000 1.000 1.000 1.000 1.000 1.000 1.000 0.999 0.999 0.999 0.999 0.999 0.998 0.998 0.998 0.997 0.996 0.995 0.994 0.993 0.991 0.989 0.987 0.984 0.980 0.976 0.971 0.965 0.957 0.949 0.939 0.927 0.914 0.899 0.882 0.863 0.842 0.818 0.793 0.766 0.736 0.698 0.663 0.628 0.591 0.553 0.515 0.478 0.441 0.404 0.369 0.335 0.303 0.273 0.244 0.218 0.193 0.171 0.151 0.133 0.117 0.102 0.089 0.078 0.068 0.059 0.052 0.045 0.040 0.035 0.030 0.027 0.023 0.020 0.018 0.016 0.014 0.012 0.011 
1 5 1.000 1.000 1.000 1.000 1.000 1.000 1.000 1.000 1.000 1.000 1.000 1.000 1.000 1.000 1.000 1.000 1.000 1.000 1.000 1.000 1.000 1.000 1.000 1.000 1.000 1.000 1.000 1.000 1.000 1.000 1.000 1.000 1.000 1.000 1.000 1.000 1.000 1.000 1.000 1.000 1.000 1.000 1.000 1.000 1.000 1.000 1.000 1.000 1.000 1.000 1.000 1.000 1.000 1.000 1.000 1.000 1.000 1.000 1.000 1.000 1.000 1.000 1.000 1.000 1.000 1.000 1.000 1.000 1.000 1.000 1.000 1.000 1.000 1.000 1.000 1.000 1.000 1.000 1.000 1.000 1.000 1.000 1.000 1.000 1.000 1.000 1.000 1.000 1.000 1.000 1.000 1.000 1.000 1.000 1.000 1.000 1.000 1.000 1.000 1.000 1.000 1.000 1.000 0.999 0.999 0.999 0.999 0.999 0.999 0.999 0.999 0.998 0.998 0.998 0.998 0.997 0.997 0.997 0.996 0.996 0.995 0.995 0.994 0.993 0.993 0.992 0.990 0.989 0.987 0.986 0.983 0.981 0.978 0.974 0.970 0.966 0.960 0.954 0.947 0.939 0.929 0.918 0.906 
1 6 1.000 1.000 1.000 1.000 1.000 1.000 1.000 1.000 1.000 1.000 1.000 1.000 1.000 1.000 1.000 1.000 1.000 1.000 1.000 1.000 1.000 1.000 1.000 1.000 1.000 1.000 1.000 1.000 1.000 1.000 1.000 1.000 1.000 1.000 1.000 1.000 1.000 1.000 1.000 1.000 1.000 1.000 1.000 1.000 1.000 1.000 1.000 1.000 1.000 1.000 1.000 1.000 1.000 1.000 1.000 1.000 1.000 1.000 1.000 1.000 1.000 1.000 1.000 1.000 1.000 1.000 1.000 1.000 1.000 1.000 1.000 1.000 1.000 1.000 1.000 1.000 1.000 1.000 1.000 1.000 1.000 1.000 1.000 1.000 1.000 1.000 1.000 1.000 1.000 1.000 1.000 1.000 1.000 1.000 1.000 1.000 1.000 1.000 1.000 1.000 1.000 1.000 1.000 1.000 1.000 1.000 1.000 1.000 1.000 1.000 0.999 0.999 0.999 0.999 0.999 0.999 0.999 0.999 0.998 0.998 0.998 0.998 0.997 0.997 0.996 0.995 0.995 0.994 0.992 0.991 0.989 0.987 0.985 0.982 0.979 0.975 0.971 0.966 0.960 0.954 0.946 0.937 0.927 

@<SCITEGIC>RESIDUE_PROPERTY
Predicted pK
SciTegic.value.DoubleValue
1 1 11.041000
1 5 14.200000
1 6 14.200000

@<SCITEGIC>RESIDUE_PROPERTY
ALA
SciTegic.value.DoubleValue
1 1 -0.840000

@<SCITEGIC>RESIDUE_PROPERTY
ARG
SciTegic.value.DoubleValue
1 1 -0.150000

@<SCITEGIC>RESIDUE_PROPERTY
ASN
SciTegic.value.DoubleValue
1 1 -0.160000

@<SCITEGIC>RESIDUE_PROPERTY
ASP
SciTegic.value.DoubleValue
1 1 1.020000

@<SCITEGIC>RESIDUE_PROPERTY
CYS
SciTegic.value.DoubleValue
1 1 0.970000

@<SCITEGIC>RESIDUE_PROPERTY
GLN
SciTegic.value.DoubleValue
1 1 0.830000

@<SCITEGIC>RESIDUE_PROPERTY
GLU
SciTegic.value.DoubleValue
1 1 5.000000

@<SCITEGIC>RESIDUE_PROPERTY
GLY
SciTegic.value.DoubleValue
1 1 -0.140000

@<SCITEGIC>RESIDUE_PROPERTY
HIS
SciTegic.value.DoubleValue
1 1 -0.610000

@<SCITEGIC>RESIDUE_PROPERTY
ILE
SciTegic.value.DoubleValue
1 1 0.680000

@<SCITEGIC>RESIDUE_PROPERTY
LEU
SciTegic.value.DoubleValue
1 1 0.060000

@<SCITEGIC>RESIDUE_PROPERTY
LYS
SciTegic.value.DoubleValue
1 1 -1.080000

@<SCITEGIC>RESIDUE_PROPERTY
MET
SciTegic.value.DoubleValue
1 1 -0.850000

@<SCITEGIC>RESIDUE_PROPERTY
PHE
SciTegic.value.DoubleValue
1 1 -1.340000

@<SCITEGIC>RESIDUE_PROPERTY
PRO
SciTegic.value.DoubleValue
1 1 -3.750000

@<SCITEGIC>RESIDUE_PROPERTY
Predicted C-term pK
SciTegic.value.DoubleValue
1 6 6.076000

@<SCITEGIC>ATOM_PROPERTY
Formal Charge
SciTegic.value.StringValue
1 +1
2 0
3 0
4 0
5 0
6 0
7 0
8 0
9 0
10 0
11 0
12 0
13 0
14 0
15 0
16 0
17 0
18 0
19 +1
20 0
21 0
22 0
23 0
24 0
25 0
26 0
27 0
28 0
29 0
30 0
31 0
32 0
33 0
34 0
35 0
36 0
37 0
38 0
39 0
40 0
41 0
42 0
43 0
44 0
45 0
46 0
47 0
48 0
49 0
50 0
51 0
52 0
53 0
54 0
55 0
56 0
57 0
58 0
59 0
60 0
61 0
62 0
63 0
64 0
65 0
66 0
67 0
68 0
69 0
70 0
71 0
72 0
73 0
74 0
75 0
76 +1
77 0
78 0
79 0
80 0
81 0
82 0
83 0
84 0
85 0
86 0
87 0
88 0
89 0
90 0
91 0
92 0
93 0
94 0
95 0
96 0
97 0
98 0
99 0
100 +1
101 0
102 0
103 0
104 0
105 0
106 0
107 0
108 -1

@<SCITEGIC>ATOM_PROPERTY
pdb_tempFactor
SciTegic.value.DoubleValue
1 0.00
2 0.00
3 0.00
4 0.00
5 0.00
6 0.00
7 20.00
8 20.00
9 20.00
10 20.00
11 20.00
12 20.00
13 20.00
14 20.00
15 20.00
16 20.00
17 20.00
18 20.00
19 20.00
20 20.00
21 20.00
22 20.00
23 0.00
24 0.00
25 0.00
26 0.00
27 0.00
28 0.00
29 0.00
30 0.00
31 0.00
32 0.00
33 20.00
34 20.00
35 20.00
36 0.00
37 0.00
38 20.00
39 20.00
40 20.00
41 20.00
42 20.00
43 20.00
44 0.00
45 0.00
46 0.00
47 20.00
48 20.00
49 20.00
50 0.00
51 0.00
52 20.00
53 20.00
54 20.00
55 20.00
56 20.00
57 20.00
58 0.00
59 0.00
60 0.00
61 0.00
62 0.00
63 0.00
64 0.00
65 0.00
66 0.00
67 0.00
68 0.00
69 0.00
70 0.00
71 0.00
72 0.00
73 0.00
74 0.00
75 0.00
76 0.00
77 0.00
78 0.00
79 0.00
80 0.00
81 0.00
82 0.00
83 0.00
84 0.00
85 0.00
86 0.00
87 0.00
88 0.00
89 0.00
90 0.00
91 0.00
92 0.00
93 0.00
94 0.00
95 0.00
96 0.00
97 0.00
98 0.00
99 0.00
100 0.00
101 0.00
102 0.00
103 0.00
104 0.00
105 0.00
106 0.00
107 0.00
108 0.00

@<SCITEGIC>ATOM_PROPERTY
pdb_occupancy
SciTegic.value.DoubleValue
1 1.00
2 1.00
3 1.00
4 1.00
5 1.00
6 1.00
7 1.00
8 1.00
9 1.00
10 1.00
11 1.00
12 1.00
13 1.00
14 1.00
15 1.00
16 1.00
17 1.00
18 1.00
19 1.00
20 1.00
21 1.00
22 1.00
23 1.00
24 1.00
25 1.00
26 1.00
27 1.00
28 1.00
29 1.00
30 1.00
31 1.00
32 1.00
33 1.00
34 1.00
35 1.00
36 1.00
37 1.00
38 1.00
39 1.00
40 1.00
41 1.00
42 1.00
43 1.00
44 1.00
45 1.00
46 1.00
47 1.00
48 1.00
49 1.00
50 1.00
51 1.00
52 1.00
53 1.00
54 1.00
55 1.00
56 1.00
57 1.00
58 1.00
59 1.00
60 1.00
61 1.00
62 1.00
63 1.00
64 1.00
65 1.00
66 1.00
67 1.00
68 1.00
69 1.00
70 1.00
71 1.00
72 1.00
73 1.00
74 1.00
75 1.00
76 1.00
77 1.00
78 1.00
79 1.00
80 1.00
81 1.00
82 1.00
83 1.00
84 1.00
85 1.00
86 1.00
87 1.00
88 1.00
89 1.00
90 1.00
91 1.00
92 1.00
93 1.00
94 1.00
95 1.00
96 1.00
97 1.00
98 1.00
99 1.00
100 1.00
101 1.00
102 1.00
103 1.00
104 1.00
105 1.00
106 1.00
107 1.00
108 1.00

@<SCITEGIC>ATOM_PROPERTY
OBJECTID
SciTegic.value.StringValue
1 55821691387906
2 55825986355202
3 55830281322498
4 55834576289794
5 55838871257090
6 55843166224386
23 55924770603010
24 55929065570306
25 55933360537602
26 55937655504898
27 55941950472194
28 55946245439490
29 55950540406786
30 55954835374082
31 55959130341378
32 55963425308674
36 55972015243266
37 55976310210562
44 56040734720002
45 56045029687298
46 56049324654594
50 56057914589186
51 56062209556482
58 56143813935106
59 56148108902402
60 56152403869698
61 56156698836994
62 56160993804290
63 56165288771586
64 56169583738882
65 56173878706178
66 56178173673474
67 56182468640770
68 56186763608066
69 56191058575362
70 56195353542658
71 56199648509954
72 56203943477250
73 56208238444546
74 56212533411842
75 56216828379138
76 56221123346434
77 56225418313730
78 56229713281026
79 56234008248322
80 56238303215618
81 56242598182914
82 56246893150210
83 56251188117506
84 56255483084802
85 56259778052098
86 56264073019394
87 56268367986690
88 56272662953986
89 56276957921282
90 56281252888578
91 56285547855874
92 56289842823170
93 56294137790466
94 56298432757762
95 56302727725058
96 56307022692354
97 56311317659650
98 56315612626946
99 56319907594242
100 56324202561538
101 56328497528834
102 56332792496130
103 56337087463426
104 56341382430722
105 56345677398018
106 56349972365314
107 56354267332610
108 56358562299906

@<SCITEGIC>ATOM_PROPERTY
pdb_serialNumber
SciTegic.value.IntegerValue
1 12980
2 13003
3 13004
4 13005
5 12981
6 12991
7 13003
8 13004
9 13005
10 13006
11 13007
12 13008
13 13009
14 13010
15 13011
16 13012
17 13013
18 13014
19 13015
20 13016
21 13017
22 13018
23 12982
24 12983
25 13006
26 13010
27 13007
28 13011
29 13012
30 13008
31 13009
32 13013
33 13029
34 13030
35 13031
36 13014
37 13025
38 13034
39 13035
40 13036
41 13037
42 13038
43 13039
44 13015
45 13016
46 13033
47 13043
48 13044
49 13045
50 13034
51 13045
52 13048
53 13049
54 13050
55 13051
56 13052
57 13053
58 13035
59 13036
60 13057
61 13068
62 13058
63 13069
64 13061
65 13070
66 13071
67 13062
68 13072
69 13073
70 13063
71 13074
72 13075
73 13064
74 13076
75 13065
76 13066
77 13077
78 13078
79 13067
80 13079
81 13080
82 13059
83 13060
84 13081
85 13093
86 13082
87 13094
88 13085
89 13095
90 13096
91 13086
92 13097
93 13098
94 13087
95 13099
96 13100
97 13088
98 13101
99 13089
100 13090
101 13102
102 13103
103 13091
104 13104
105 13105
106 13083
107 13084
108 13122

@<SCITEGIC>ATOM_PROPERTY
ForcefieldType
SciTegic.value.StringValue
1 NT
2 HC
3 HC
4 HC
5 CT
6 HA
7 CT
8 HA
9 HA
10 CT
11 HA
12 HA
13 CT
14 HA
15 HA
16 CT
17 HA
18 HA
19 NT
20 HC
21 HC
22 HC
23 C
24 O
25 NP
26 H
27 CT
28 HA
29 HA
30 C
31 O
32 NX
33 CT
34 HA
35 HA
36 CT
37 HA
38 CT
39 HA
40 HA
41 CT
42 HA
43 HA
44 C
45 O
46 NX
47 CT
48 HA
49 HA
50 CT
51 HA
52 CT
53 HA
54 HA
55 CT
56 HA
57 HA
58 C
59 O
60 NP
61 H
62 CT
63 HA
64 CT
65 HA
66 HA
67 CT
68 HA
69 HA
70 CT
71 HA
72 HA
73 NP
74 H
75 C
76 NC
77 HC
78 HC
79 NC
80 HC
81 HC
82 C
83 O
84 NP
85 H
86 CT
87 HA
88 CT
89 HA
90 HA
91 CT
92 HA
93 HA
94 CT
95 HA
96 HA
97 NP
98 H
99 C
100 NC
101 HC
102 HC
103 NC
104 HC
105 HC
106 C
107 OC
108 OC

